/*--------------------------------*- C++ -*----------------------------------*\
| =========                 |                                                 |
| \\      /  F ield         | OpenFOAM: The Open Source CFD Toolbox           |
|  \\    /   O peration     | Version:  v1912                                 |
|   \\  /    A nd           | Website:  www.openfoam.com                      |
|    \\/     M anipulation  |                                                 |
\*---------------------------------------------------------------------------*/
FoamFile
{
    version     2.0;
    format      ascii;
    class       volScalarField;
    object      T;
}
// * * * * * * * * * * * * * * * * * * * * * * * * * * * * * * * * * * * * * //

dimensions      [0 0 0 1 0 0 0];

internalField   uniform 100;

boundaryField
{
	top
	{
		type		fixedValue;
		value		uniform 100;	
	}
	back
	{
		type		fixedValue;
		value		uniform 100;
	}
	right
	{
		type		fixedValue;
		value		uniform 100;
	}
	front
        {
                type            fixedValue;
                value           uniform 100;
        }
        left
        {
                type            fixedValue;
                value           uniform 100;
        }
        bottom
        {
                type            fixedValue;
                value           uniform 100;
        }
	cut
        {
                type            fixedValue;
                value           uniform 3000;
        }
}

// ************************************************************************* //
